Arquivos Simulação/IEEE_Final/IEEE33_SC_FaultStudy.Txt
FAULT STUDY REPORT

ALL-Node Fault Currents

Bus      Node            Amps   X/R Node            Amps   X/R Node            Amps   X/R ...

"SOURCEBUS" 1           16735   4.0    2           16735   4.0    3           16735   4.0
"10"       1           83002   3.9    2           83002   3.9    3           83002   3.9
"20"       1           43701   1.2    2           43701   1.2    3           43701   1.2
"30"       1           11001   0.6    2           11001   0.6    3           11001   0.6
"40"       1            7019   0.6    2            7019   0.6    3            7019   0.6
"50"       1            5095   0.6    2            5095   0.6    3            5095   0.6
"60"       1            3020   0.7    2            3020   0.7    3            3020   0.7
"70"       1            2511   0.9    2            2511   0.9    3            2511   0.9
"80"       1            1499   0.8    2            1499   0.8    3            1499   0.8
"90"       1            1206   0.8    2            1206   0.8    3            1206   0.8
"100"      1            1007   0.7    2            1007   0.7    3            1007   0.7
"110"      1             982   0.7    2             982   0.7    3             982   0.7
"120"      1             938   0.7    2             938   0.7    3             938   0.7
"130"      1             764   0.7    2             764   0.7    3             764   0.7
"140"      1             704   0.7    2             704   0.7    3             704   0.7
"150"      1             656   0.8    2             656   0.8    3             656   0.8
"160"      1             608   0.7    2             608   0.7    3             608   0.7
"170"      1             521   0.8    2             521   0.8    3             521   0.8
"180"      1             490   0.8    2             490   0.8    3             490   0.8
"190"      1           19492   1.1    2           19492   1.1    3           19492   1.1
"200"      1            3270   0.9    2            3270   0.9    3            3270   0.9
"210"      1            2600   1.0    2            2600   1.0    3            2600   1.0
"220"      1            1881   1.1    2            1881   1.1    3            1881   1.1
"230"      1            6251   0.7    2            6251   0.7    3            6251   0.7
"240"      1            3283   0.7    2            3283   0.7    3            3283   0.7
"250"      1            2227   0.7    2            2227   0.7    3            2227   0.7
"260"      1            2777   0.6    2            2777   0.6    3            2777   0.6
"270"      1            2496   0.6    2            2496   0.6    3            2496   0.6
"280"      1            1724   0.7    2            1724   0.7    3            1724   0.7
"290"      1            1396   0.7    2            1396   0.7    3            1396   0.7
"300"      1            1268   0.7    2            1268   0.7    3            1268   0.7
"310"      1            1038   0.7    2            1038   0.7    3            1038   0.7
"320"      1             976   0.8    2             976   0.8    3             976   0.8
"330"      1             908   0.8    2             908   0.8    3             908   0.8


ONE-Node to ground Faults

                                      pu Node Voltages (L-N Volts if no base)
Bus         Node  Amps         Node 1     Node 2     Node 3    ...

"SOURCEBUS"    1        17569          0.000      0.955      0.997
"SOURCEBUS"    2        17569          0.997      0.000      0.955
"SOURCEBUS"    3        17569          0.955      0.997      0.000
"10"           1       124003          0.000      0.862      0.869
"10"           2       124003          0.869      0.000      0.862
"10"           3       124003          0.862      0.869      0.000
"20"           1        29879            0.0    10093.7     8941.0
"20"           2        29879         8941.0        0.0    10093.7
"20"           3        29879        10093.7     8941.0        0.0
"30"           1        10638            0.0     9536.9     6788.3
"30"           2        10638         6788.3        0.0     9536.9
"30"           3        10638         9536.9     6788.3        0.0
"40"           1         6925            0.0     9509.4     6605.8
"40"           2         6925         6605.8        0.0     9509.4
"40"           3         6925         9509.4     6605.8        0.0
"50"           1         5093            0.0     9454.3     6492.3
"50"           2         5093         6492.3        0.0     9454.3
"50"           3         5093         9454.3     6492.3        0.0
"60"           1         3279            0.0     8724.3     6299.8
"60"           2         3279         6299.8        0.0     8724.3
"60"           3         3279         8724.3     6299.8        0.0
"70"           1         2692            0.0     8442.1     6600.8
"70"           2         2692         6600.8        0.0     8442.1
"70"           3         2692         8442.1     6600.8        0.0
"80"           1         1765            0.0     8007.5     6230.5
"80"           2         1765         6230.5        0.0     8007.5
"80"           3         1765         8007.5     6230.5        0.0
"90"           1         1446            0.0     7905.0     6149.4
"90"           2         1446         6149.4        0.0     7905.0
"90"           3         1446         7905.0     6149.4        0.0
"100"          1         1222            0.0     7826.4     6090.2
"100"          2         1222         6090.2        0.0     7826.4
"100"          3         1222         7826.4     6090.2        0.0
"110"          1         1174            0.0     7924.3     6084.7
"110"          2         1174         6084.7        0.0     7924.3
"110"          3         1174         7924.3     6084.7        0.0
"120"          1         1110            0.0     8000.1     6058.6
"120"          2         1110         6058.6        0.0     8000.1
"120"          3         1110         8000.1     6058.6        0.0
"130"          1          926            0.0     7834.4     6020.0
"130"          2          926         6020.0        0.0     7834.4
"130"          3          926         7834.4     6020.0        0.0
"140"          1          852            0.0     7789.7     6055.3
"140"          2          852         6055.3        0.0     7789.7
"140"          3          852         7789.7     6055.3        0.0
"150"          1          793            0.0     7781.9     6057.6
"150"          2          793         6057.6        0.0     7781.9
"150"          3          793         7781.9     6057.6        0.0
"160"          1          736            0.0     7773.2     6045.0
"160"          2          736         6045.0        0.0     7773.2
"160"          3          736         7773.2     6045.0        0.0
"170"          1          640            0.0     7614.8     6097.3
"170"          2          640         6097.3        0.0     7614.8
"170"          3          640         7614.8     6097.3        0.0
"180"          1          601            0.0     7615.8     6090.7
"180"          2          601         6090.7        0.0     7615.8
"180"          3          601         7615.8     6090.7        0.0
"190"          1        14235            0.0    10041.0     8543.1
"190"          2        14235         8543.1        0.0    10041.0
"190"          3        14235        10041.0     8543.1        0.0
"200"          1         3906            0.0     8066.3     6532.5
"200"          2         3906         6532.5        0.0     8066.3
"200"          3         3906         8066.3     6532.5        0.0
"210"          1         3062            0.0     8085.1     6598.4
"210"          2         3062         6598.4        0.0     8085.1
"210"          3         3062         8085.1     6598.4        0.0
"220"          1         2258            0.0     7904.9     6644.5
"220"          2         2258         6644.5        0.0     7904.9
"220"          3         2258         7904.9     6644.5        0.0
"230"          1         6378            0.0     9221.5     6576.1
"230"          2         6378         6576.1        0.0     9221.5
"230"          3         6378         9221.5     6576.1        0.0
"240"          1         3698            0.0     8569.1     6329.4
"240"          2         3698         6329.4        0.0     8569.1
"240"          3         3698         8569.1     6329.4        0.0
"250"          1         2606            0.0     8317.4     6269.4
"250"          2         2606         6269.4        0.0     8317.4
"250"          3         2606         8317.4     6269.4        0.0
"260"          1         2932            0.0     8891.7     6360.6
"260"          2         2932         6360.6        0.0     8891.7
"260"          3         2932         8891.7     6360.6        0.0
"270"          1         2599            0.0     8984.5     6375.8
"270"          2         2599         6375.8        0.0     8984.5
"270"          3         2599         8984.5     6375.8        0.0
"280"          1         1911            0.0     8502.7     6253.3
"280"          2         1911         6253.3        0.0     8502.7
"280"          3         1911         8502.7     6253.3        0.0
"290"          1         1582            0.0     8323.3     6222.0
"290"          2         1582         6222.0        0.0     8323.3
"290"          3         1582         8323.3     6222.0        0.0
"300"          1         1435            0.0     8357.9     6183.8
"300"          2         1435         6183.8        0.0     8357.9
"300"          3         1435         8357.9     6183.8        0.0
"310"          1         1201            0.0     8156.8     6184.9
"310"          2         1201         6184.9        0.0     8156.8
"310"          3         1201         8156.8     6184.9        0.0
"320"          1         1122            0.0     8165.5     6220.9
"320"          2         1122         6220.9        0.0     8165.5
"320"          3         1122         8165.5     6220.9        0.0
"330"          1         1039            0.0     8128.7     6276.1
"330"          2         1039         6276.1        0.0     8128.7
"330"          3         1039         8128.7     6276.1        0.0

Adjacent Node-Node Faults

                                        pu Node Voltages (L-N Volts if no base)
Bus          Node-Node      Amps        Node 1     Node 2     Node 3    ...

"SOURCEBUS"   1   2       14493         0.500      0.500      1.000
"SOURCEBUS"   1   3       14493         0.500      1.000      0.500
"SOURCEBUS"   2   3       14493         1.000      0.500      0.500
"10"          1   2       71872         0.500      0.499      1.000
"10"          1   3       71872         0.499      1.000      0.500
"10"          2   3       71872         1.000      0.500      0.499
"20"          1   2       37839        3976.4     3973.5     7949.9
"20"          1   3       37839        3973.5     7949.9     3976.4
"20"          2   3       37839        7949.9     3976.4     3973.5
"30"          1   2        9527        3942.5     3942.0     7884.5
"30"          1   3        9527        3942.0     7884.5     3942.5
"30"          2   3        9527        7884.5     3942.5     3942.0
"40"          1   2        6078        3925.8     3925.5     7851.2
"40"          1   3        6078        3925.5     7851.2     3925.8
"40"          2   3        6078        7851.2     3925.8     3925.5
"50"          1   2        4412        3909.1     3908.9     7818.0
"50"          1   3        4412        3908.9     7818.0     3909.1
"50"          2   3        4412        7818.0     3909.1     3908.9
"60"          1   2        2615        3874.7     3874.6     7749.3
"60"          1   3        2615        3874.6     7749.3     3874.7
"60"          2   3        2615        7749.3     3874.7     3874.6
"70"          1   2        2174        3870.6     3870.5     7741.1
"70"          1   3        2174        3870.5     7741.1     3870.6
"70"          2   3        2174        7741.1     3870.6     3870.5
"80"          1   2        1298        3837.2     3837.1     7674.3
"80"          1   3        1298        3837.1     7674.3     3837.2
"80"          2   3        1298        7674.3     3837.2     3837.1
"90"          1   2        1045        3819.2     3819.1     7638.3
"90"          1   3        1045        3819.1     7638.3     3819.2
"90"          2   3        1045        7638.3     3819.2     3819.1
"100"         1   2         872        3803.0     3803.0     7606.0
"100"         1   3         872        3803.0     7606.0     3803.0
"100"         2   3         872        7606.0     3803.0     3803.0
"110"         1   2         851        3800.3     3800.3     7600.6
"110"         1   3         851        3800.3     7600.6     3800.3
"110"         2   3         851        7600.6     3800.3     3800.3
"120"         1   2         812        3796.0     3796.0     7591.9
"120"         1   3         812        3796.0     7591.9     3796.0
"120"         2   3         812        7591.9     3796.0     3796.0
"130"         1   2         662        3781.9     3781.8     7563.7
"130"         1   3         662        3781.8     7563.7     3781.9
"130"         2   3         662        7563.7     3781.9     3781.8
"140"         1   2         610        3777.7     3777.7     7555.4
"140"         1   3         610        3777.7     7555.4     3777.7
"140"         2   3         610        7555.4     3777.7     3777.7
"150"         1   2         569        3774.1     3774.1     7548.1
"150"         1   3         569        3774.1     7548.1     3774.1
"150"         2   3         569        7548.1     3774.1     3774.1
"160"         1   2         527        3770.6     3770.6     7541.3
"160"         1   3         527        3770.6     7541.3     3770.6
"160"         2   3         527        7541.3     3770.6     3770.6
"170"         1   2         452        3766.7     3766.7     7533.4
"170"         1   3         452        3766.7     7533.4     3766.7
"170"         2   3         452        7533.4     3766.7     3766.7
"180"         1   2         424        3765.6     3765.6     7531.1
"180"         1   3         424        3765.6     7531.1     3765.6
"180"         2   3         424        7531.1     3765.6     3765.6
"190"         1   2       16879        3974.3     3973.1     7947.4
"190"         1   3       16879        3973.1     7947.4     3974.3
"190"         2   3       16879        7947.4     3974.3     3973.1
"200"         1   2        2832        3965.4     3965.2     7930.6
"200"         1   3        2832        3965.2     7930.6     3965.4
"200"         2   3        2832        7930.6     3965.4     3965.2
"210"         1   2        2251        3963.9     3963.7     7927.6
"210"         1   3        2251        3963.7     7927.6     3963.9
"210"         2   3        2251        7927.6     3963.9     3963.7
"220"         1   2        1629        3962.5     3962.4     7924.9
"220"         1   3        1629        3962.4     7924.9     3962.5
"220"         2   3        1629        7924.9     3962.5     3962.4
"230"         1   2        5413        3933.7     3933.4     7867.2
"230"         1   3        5413        3933.4     7867.2     3933.7
"230"         2   3        5413        7867.2     3933.7     3933.4
"240"         1   2        2843        3922.2     3922.0     7844.2
"240"         1   3        2843        3922.0     7844.2     3922.2
"240"         2   3        2843        7844.2     3922.2     3922.0
"250"         1   2        1928        3916.5     3916.4     7832.8
"250"         1   3        1928        3916.4     7832.8     3916.5
"250"         2   3        1928        7832.8     3916.5     3916.4
"260"         1   2        2405        3870.9     3870.8     7741.7
"260"         1   3        2405        3870.8     7741.7     3870.9
"260"         2   3        2405        7741.7     3870.9     3870.8
"270"         1   2        2162        3866.3     3866.2     7732.5
"270"         1   3        2162        3866.2     7732.5     3866.3
"270"         2   3        2162        7732.5     3866.3     3866.2
"280"         1   2        1493        3851.6     3851.5     7703.1
"280"         1   3        1493        3851.5     7703.1     3851.6
"280"         2   3        1493        7703.1     3851.6     3851.5
"290"         1   2        1209        3842.3     3842.2     7684.5
"290"         1   3        1209        3842.2     7684.5     3842.3
"290"         2   3        1209        7684.5     3842.3     3842.2
"300"         1   2        1098        3837.6     3837.5     7675.1
"300"         1   3        1098        3837.5     7675.1     3837.6
"300"         2   3        1098        7675.1     3837.6     3837.5
"310"         1   2         899        3830.9     3830.8     7661.7
"310"         1   3         899        3830.8     7661.7     3830.9
"310"         2   3         899        7661.7     3830.9     3830.8
"320"         1   2         846        3829.4     3829.4     7658.8
"320"         1   3         846        3829.4     7658.8     3829.4
"320"         2   3         846        7658.8     3829.4     3829.4
"330"         1   2         786        3828.7     3828.6     7657.3
"330"         1   3         786        3828.6     7657.3     3828.7
"330"         2   3         786        7657.3     3828.7     3828.6
